# contributor: Bob Yantosca <yantosca@seas.harvard.edu>
# name: gcclassic-hash-update
# key: :gcc
# --
GEOS-Chem update: Merge PR # ( )

This commit informs the GCClassic superproject about the following 
commits that were pushed to the GitHub geoschem/geos-chem repository:



This PR ...

Signed-off-by: Bob Yantosca <yantosca@seas.harvard.edu>
