# -*- mode: snippet -*-
# contributor: Bob Yantosca <yantosca@seas.harvard.edu>
# name: gchp-hash-update
# key: :gchp
# --
GEOS-Chem update: Merge PR # ( )

This commit informs the GCHP superproject about the following 
commits that were pushed to the GitHub geoschem/geos-chem repository:



This PR ...

Signed-off-by: Bob Yantosca <yantosca@seas.harvard.edu>
