# contributor: Bob Yantosca <yantosca@seas.harvard.edu>
# name: int-test-results
# key: :itr
# --
All GEOS-Chem Classic integration tests passed:
```console
-- Paste log file header here --


%%%%%%%%%%%%%%%%%%%%%%%%%%%%%%%%%%%%%
%%%  All execution tests passed!  %%%
%%%%%%%%%%%%%%%%%%%%%%%%%%%%%%%%%%%%%
```
All tests were zero-diff w/r/t ___, except

- item1
- item2

All GCHP integration tests passed:
```console
-- Paste log file header here --

%%%%%%%%%%%%%%%%%%%%%%%%%%%%%%%%%%%%%
%%%  All execution tests passed!  %%%
%%%%%%%%%%%%%%%%%%%%%%%%%%%%%%%%%%%%%
```
All tests were zero-diff w/r/t ___

