# -*- mode: snippet -*-
# contributor: Bob Yantosca <yantosca@seas.harvard.edu>
# name: int-test-results
# key: :itr
# --
All GEOS-Chem Classic integration tests passed:
\`\`\`console

%%%%%%%%%%%%%%%%%%%%%%%%%%%%%%%%%%%%%
%%%  All execution tests passed!  %%%
%%%%%%%%%%%%%%%%%%%%%%%%%%%%%%%%%%%%%
\`\`\`
All tests were zero-diff w/r/t ..., except

- ${2:item1}
- ${3:item2}

All GCHP integration tests passed:
\`\`\`console

%%%%%%%%%%%%%%%%%%%%%%%%%%%%%%%%%%%%%
%%%  All execution tests passed!  %%%
%%%%%%%%%%%%%%%%%%%%%%%%%%%%%%%%%%%%%
\`\`\`
All tests were zero-diff w/r/t ...